tests/data/power_flow/pandapower-test-transformer/pgm_sym_output.json
{
  "line": [
    {
      "id": 3,
      "energized": 1,
      "loading": 0.0019309366084547589,
      "p_from": 13001.318372021533,
      "q_from": -32621.65731434465,
      "i_from": 1.9309366084547588,
      "s_from": 35117.04437086357,
      "p_to": -13000.404006320703,
      "q_to": -2013.6128508776965,
      "i_to": 0.7233618601645081,
      "s_to": 13155.422495715566
    }
  ],
  "node": [
    {
      "id": 1,
      "energized": 1,
      "u_pu": 1.0000000311660817,
      "u": 10500.000327243859,
      "u_angle": -1.6182771019826288e-08
    },
    {
      "id": 2,
      "energized": 1,
      "u_pu": 0.9999983130984315,
      "u": 10499.98228753353,
      "u_angle": -5.830353878993772e-05
    },
    {
      "id": 5,
      "energized": 1,
      "u_pu": 0.9996835910251545,
      "u": 399.8734364100618,
      "u_angle": 0.5224159735014136
    }
  ],
  "source": [
    {
      "id": 4,
      "energized": 1,
      "p": 13001.318346528466,
      "q": -32621.657557739796,
      "i": 1.9309366203680483,
      "s": 35117.04458752501,
      "pf": 0.37022814702200363
    }
  ],
  "sym_load": [
    {
      "id": 9,
      "energized": 1,
      "p": 10000.0,
      "q": 2000.0,
      "i": 14.724260331996751,
      "s": 10198.03902718557,
      "pf": 0.9805806756909201
    }
  ],
  "transformer": [
    {
      "id": 6,
      "energized": 1,
      "loading": 0.012168170522268037,
      "p_from": 12000.409881330517,
      "q_from": 2013.5879764881497,
      "i_from": 0.6690769883409944,
      "s_from": 12168.170522268038,
      "p_to": -10999.364782521148,
      "q_to": -2000.0248586996145,
      "i_to": 16.141642320953416,
      "s_to": 11179.719363847329
    },
    {
      "id": 7,
      "energized": 1,
      "loading": 0.0009993647828317102,
      "p_from": 0.0,
      "q_from": 0.0,
      "i_from": 0.0,
      "s_from": 0.0,
      "p_to": 999.3647825225365,
      "q_to": 0.024858698621104975,
      "i_to": 1.4429153673384678,
      "s_to": 999.3647828317103
    },
    {
      "id": 8,
      "energized": 1,
      "loading": 0.0009999941252925343,
      "p_from": 999.9941249831659,
      "q_from": 0.02487435319972498,
      "i_from": 0.054985509652827155,
      "s_from": 999.9941252925342,
      "p_to": 0.0,
      "q_to": 0.0,
      "i_to": 0.0,
      "s_to": 0.0
    }
  ]
}