tests/data/power_flow/pandapower-test-transformer/sym_output.json
{
  "line": [
    {
      "id": 3,
      "loading": 0.001930936608464353,
      "p_from": 13001.318371850997,
      "q_from": -32621.657314600434,
      "i_from": 1.9309366084643527,
      "s_from": 35117.044371038035,
      "p_to": -13000.404006207005,
      "q_to": -2013.6128506503271,
      "i_to": 0.7233618601564163,
      "s_to": 13155.422495568408
    }
  ],
  "node": [
    {
      "id": 1,
      "u_pu": 1.0000000311660813,
      "u": 10500.000327243853,
      "u_angle": -1.6182771038239987e-08
    },
    {
      "id": 2,
      "u_pu": 0.9999983130984317,
      "u": 10499.982287533532,
      "u_angle": -5.830353879018028e-05
    },
    {
      "id": 5,
      "u_pu": 0.999683591025169,
      "u": 399.8734364100676,
      "u_angle": 0.5224159735014183
    }
  ],
  "source": [
    {
      "id": 4,
      "p": 13001.3184180647,
      "q": -32621.657073101163,
      "i": 1.9309365970697177,
      "s": 35117.044163809114
    }
  ],
  "sym_load": [
    {
      "id": 9,
      "p": 10000.0,
      "q": 2000.0,
      "i": 14.724260331996534,
      "s": 10198.03902718557
    }
  ],
  "transformer": [
    {
      "id": 6,
      "loading": 0.01216819104872121,
      "p_from": 12000.409881265454,
      "q_from": 2013.5879763478192,
      "i_from": 0.6690769883361891,
      "s_from": 12168.170522180646,
      "p_to": -10999.364782458646,
      "q_to": -2000.024858561167,
      "i_to": 16.14164232082863,
      "s_to": 11179.719363761065
    },
    {
      "id": 7,
      "loading": 0.0009996810908269775,
      "p_from": 7.280716672037355e-08,
      "q_from": -8.973860760486067e-11,
      "i_from": 4.004646102436884e-12,
      "s_from": 7.28072220240957e-08,
      "p_to": 999.3647824486974,
      "q_to": 0.02485869782551742,
      "i_to": 1.4429153672318356,
      "s_to": 999.3647827578711
    },
    {
      "id": 8,
      "loading": 0.000999995812186284,
      "p_from": 999.9941249824117,
      "q_from": 0.024874354019893914,
      "i_from": 0.054985509652785675,
      "s_from": 999.9941252917802,
      "p_to": 1.1877834003431342e-10,
      "q_to": -1.982458945948112e-09,
      "i_to": 2.8665835232995054e-12,
      "s_to": 1.9860140398373333e-09
    }
  ]
}